
##########################################################################
#               Crystallographic Information Format file 
#               Produced by PyCifRW module
# 
#  This is a CIF file.  CIF has been adopted by the International
#  Union of Crystallography as the standard for data archiving and 
#  transmission.
#
#  For information on this file format, follow the CIF links at
#  http://www.iucr.org
##########################################################################

data_ZEOPP

_cell_length_a                          20.1530013287
_cell_length_b                          17.9080011807
_cell_length_c                          6.9533
_cell_angle_alpha                       90
_cell_angle_beta                        97.343
_cell_angle_gamma                       90
_symmetry_space_group_name_H-M          P1
_symmetry_Int_Tables_number             1
_symmetry_cell_setting                  Monoclinic
loop_
  _symmetry_equiv_pos_as_xyz
         '+x,+y,+z' 
loop_
  _atom_site_label
  _atom_site_type_symbol
  _atom_site_fract_x
  _atom_site_fract_y
  _atom_site_fract_z
         C0        C         0.372358777589      0.0896320620955     0.656343755386     
         C1        C         0.127250600607      0.409977312906      0.343825587951     
         C2        C         0.409861401932      0.145311626351      0.409527346711     
         C3        C         0.0897469342293     0.354297748616      0.590641996479     
         C4        C         0.360493142835      0.146144726189      0.525817593271     
         C5        C         0.139116235361      0.353464648812      0.474351750066     
         C6        C         0.303042336621      0.199947630785      0.512461623823     
         C7        C         0.196567041575      0.299661744216      0.487707719513     
         C8        C         0.224881019684      0.273145391814      0.667530476624     
         C9        C         0.27472835212       0.226463983185      0.332638721707     
         C10       C         0.278118670402      0.2232883351        0.679907501282     
         C11       C         0.221490707794      0.276321039901      0.320261842055     
         H12       H         0.345717335202      0.0772996888174     0.755068706815     
         H13       H         0.153892036602      0.422309686181      0.245100491516     
         H14       H         0.414016167607      0.178703207199      0.305574827225     
         H15       H         0.0855932041972     0.320906167799      0.694594371106     
         H16       H         0.207846468985      0.289097521088      0.781972604657     
         H17       H         0.291762853198      0.210511853909      0.218196593667     
         H18       H         0.297470280322      0.205165794053      0.80280841         
         H19       H         0.202139091482      0.294443580945      0.19736078833      
         C20       C         0.871968490049      0.409976886336      0.156344885785     
         C21       C         0.626859620922      0.0896325104364     0.84382439985      
         C22       C         0.909470614325      0.354297954193      0.909526802021     
         C23       C         0.589356992587      0.145310762581      0.0906442855469    
         C24       C         0.860102579814      0.353464570466      0.025817800884     
         C25       C         0.638725531156      0.146144826307      0.974351484751     
         C26       C         0.802651622138      0.299661857325      0.0124613240817    
         C27       C         0.696176488832      0.199947539448      0.987707961554     
         C28       C         0.687275498886      0.273505759391      0.0428704319712    
         C29       C         0.811552640143      0.226103593836      0.95729882406      
         C30       C         0.74051305151       0.323362940102      0.0552471280373    
         C31       C         0.75831505946       0.17624645667       0.944922157598     
         H32       H         0.845327713163      0.422308418381      0.25507206647      
         H33       H         0.653500425866      0.0773009348458     0.745097189561     
         H34       H         0.913624432885      0.320907570553      0.805571109951     
         H35       H         0.585203706144      0.178701782674      0.19459814608      
         H36       H         0.64480644328       0.289704312312      0.0721137048268    
         H37       H         0.854021671746      0.209905008534      0.928055637011     
         H38       H         0.734429613043      0.373636850334      0.092947361066     
         H39       H         0.764398525987      0.125972502893      0.907221894965     
         C40       C         0.372359115049      0.909586261336      0.156344885785     
         C41       C         0.127250245922      0.589241885436      0.84382439985      
         C42       C         0.409861239325      0.853907329193      0.909526802021     
         C43       C         0.0897476175874     0.644920137581      0.0906442855469    
         C44       C         0.360493204814      0.853073945466      0.025817800884     
         C45       C         0.139116156156      0.645754201307      0.974351484751     
         C46       C         0.303042247138      0.799271232325      0.0124613240817    
         C47       C         0.196567113832      0.699556914448      0.987707961554     
         C48       C         0.187666123886      0.773115134391      0.0428704319712    
         C49       C         0.311943265143      0.725712968836      0.95729882406      
         C50       C         0.24090367651       0.822972315102      0.0552471280373    
         C51       C         0.25870568446       0.67585583167       0.944922157598     
         H52       H         0.345718338163      0.921917793381      0.25507206647      
         H53       H         0.153891050866      0.576910309846      0.745097189561     
         H54       H         0.414015057885      0.820516945553      0.805571109951     
         H55       H         0.0855943311444     0.678311157674      0.19459814608      
         H56       H         0.14519706828       0.789313687312      0.0721137048268    
         H57       H         0.354412296746      0.709514383534      0.928055637011     
         H58       H         0.234820238043      0.873246225334      0.092947361066     
         H59       H         0.264789150987      0.625581877893      0.907221894965     
         C60       C         0.871968152589      0.589241437095      0.656343755386     
         C61       C         0.626859975607      0.909586687906      0.343825587951     
         C62       C         0.909470776932      0.644921001351      0.409527346711     
         C63       C         0.589356309229      0.853907123616      0.590641996479     
         C64       C         0.860102517835      0.645754101189      0.525817593271     
         C65       C         0.638725610361      0.853074023812      0.474351750066     
         C66       C         0.802651711621      0.699557005785      0.512461623823     
         C67       C         0.696176416575      0.799271119216      0.487707719513     
         C68       C         0.724490394684      0.772754766814      0.667530476624     
         C69       C         0.77433772712       0.726073358185      0.332638721707     
         C70       C         0.777728045402      0.7228977101        0.679907501282     
         C71       C         0.721100082794      0.775930414901      0.320261842055     
         H72       H         0.845326710202      0.576909063817      0.755068706815     
         H73       H         0.653501411602      0.921919061181      0.245100491516     
         H74       H         0.913625542607      0.678312582199      0.305574827224     
         H75       H         0.585202579197      0.820515542799      0.694594371106     
         H76       H         0.707455843985      0.788706896088      0.781972604657     
         H77       H         0.791372228198      0.710121228909      0.218196593667     
         H78       H         0.797079655322      0.704775169053      0.80280841         
         H79       H         0.701748466482      0.794052955945      0.19736078833      
         Fe80      Fe        1.0       0.484200001042      0.75      
         Fe81      Fe        1.0       0.515799998958      0.25      
         N82       N         0.929251004665      0.445940003564      0.120592  
         N83       N         0.929251004665      0.554059996436      0.620592  
         N84       N         0.0707489953353     0.445940003564      0.379408  
         N85       N         0.0707489953353     0.554059996436      0.879408  
         N86       N         0.952427003137      0.411527005833      0.968051  
         N87       N         0.952427003137      0.588472994167      0.468051  
         N88       N         0.0475729968634     0.411527005833      0.531949  
         N89       N         0.0475729968634     0.588472994167      0.031949  
         Fe90      Fe        0.5       0.984200001042      0.75      
         Fe91      Fe        0.5       0.0157999989583     0.25      
         N92       N         0.429251004665      0.945940003564      0.120592  
         N93       N         0.429251004665      0.0540599964357     0.620592  
         N94       N         0.570748995335      0.945940003564      0.379408  
         N95       N         0.570748995335      0.0540599964357     0.879408  
         N96       N         0.452427003137      0.911527005833      0.968051  
         N97       N         0.452427003137      0.0884729941667     0.468051  
         N98       N         0.547572996863      0.911527005833      0.531949  
         N99       N         0.547572996863      0.0884729941667     0.031949 