
##########################################################################
#               Crystallographic Information Format file 
#               Produced by PyCifRW module
# 
#  This is a CIF file.  CIF has been adopted by the International
#  Union of Crystallography as the standard for data archiving and 
#  transmission.
#
#  For information on this file format, follow the CIF links at
#  http://www.iucr.org
##########################################################################

data_ZEOPP

_cell_length_a                          20.153
_cell_length_b                          17.908
_cell_length_c                          6.9533
_cell_angle_alpha                       90
_cell_angle_beta                        97.343
_cell_angle_gamma                       90
_symmetry_space_group_name_H-M          P1
_symmetry_Int_Tables_number             1
_symmetry_cell_setting                  Monoclinic
loop_
  _symmetry_equiv_pos_as_xyz
         '+x,+y,+z' 
loop_
  _atom_site_label
  _atom_site_type_symbol
  _atom_site_fract_x
  _atom_site_fract_y
  _atom_site_fract_z
         C0        C         0.372743241172      0.0900099309928     0.656273050208     
         C1        C         0.127647387026      0.410380694006      0.343891084795     
         C2        C         0.410240578121      0.14569445315       0.409455413242     
         C3        C         0.0901490080556     0.354696171883      0.590708721907     
         C4        C         0.360876870544      0.146527300812      0.525761162617     
         C5        C         0.139513757654      0.353863324187      0.474402972386     
         C6        C         0.303429644256      0.200334383801      0.512433130844     
         C7        C         0.196960983942      0.300056241198      0.487731004159     
         C8        C         0.225278994432      0.273532622874      0.667542138437     
         C9        C         0.27511162737       0.226858002127      0.332621851561     
         C10       C         0.278513327787      0.223671694175      0.679893274282     
         C11       C         0.221877300411      0.276718930824      0.320270860721     
         H12       H         0.346104670266      0.0776763398183     0.755003973348     
         H13       H         0.154285951535      0.422714285183      0.245160016649     
         H14       H         0.414393873548      0.179088887347      0.305507857138     
         H15       H         0.0859967482537     0.321301737655      0.694656132859     
         H16       H         0.208249466962      0.289482432554      0.781994016684     
         H17       H         0.29214110522       0.210908192449      0.21816997332      
         H18       H         0.297867693672      0.205544187175      0.802786239284     
         H19       H         0.20252292813       0.294846437826      0.197377750713     
         C20       C         0.873134203691      0.410380267495      0.156274180621     
         C21       C         0.628037657279      0.0900103792771     0.84388989668      
         C22       C         0.910631040485      0.354696377368      0.909454868545     
         C23       C         0.590540316535      0.145693589426      0.0907110110034    
         C24       C         0.861267557534      0.353863245853      0.0257613702326    
         C25       C         0.639904303436      0.146527400919      0.974402707069     
         C26       C         0.803820179758      0.300056354295      0.0124328310992    
         C27       C         0.697351681211      0.200334292478      0.987731246202     
         C28       C         0.688448110378      0.273893590082      0.0428805587597    
         C29       C         0.812723778652      0.226497013145      0.957283488939     
         C30       C         0.741682345621      0.323754642763      0.0552313660096    
         C31       C         0.759489515349      0.176636004009      0.944932711292     
         H32       H         0.846496298406      0.422713017547      0.255007333045     
         H33       H         0.654675590624      0.0776775856804     0.745156714654     
         H34       H         0.914783388629      0.321303140221      0.805504139819     
         H35       H         0.586388500401      0.179087463007      0.19465990788      
         H36       H         0.645979558173      0.290090233243      0.0721325327184    
         H37       H         0.855192306859      0.210300337605      0.928031600802     
         H38       H         0.735597143195      0.374029289502      0.092922606187     
         H39       H         0.765574745836      0.126361313726      0.907241441512     
         C40       C         0.372743578691      0.910770892495      0.156274180621     
         C41       C         0.127647032279      0.590401004277      0.84388989668      
         C42       C         0.410240415485      0.855087002368      0.909454868545     
         C43       C         0.0901496915351     0.646084214426      0.0907110110034    
         C44       C         0.360876932534      0.854253870853      0.0257613702326    
         C45       C         0.139513678436      0.646918025919      0.974402707069     
         C46       C         0.303429554758      0.800446979295      0.0124328310992    
         C47       C         0.196961056211      0.700724917478      0.987731246202     
         C48       C         0.188057485378      0.774284215082      0.0428805587597    
         C49       C         0.312333153652      0.726887638145      0.957283488939     
         C50       C         0.241291720621      0.824145267763      0.0552313660096    
         C51       C         0.259098890349      0.677026629009      0.944932711292     
         H52       H         0.346105673406      0.923103642547      0.255007333045     
         H53       H         0.154284965624      0.57806821068       0.745156714654     
         H54       H         0.414392763629      0.821693765221      0.805504139819     
         H55       H         0.0859978754011     0.679478088007      0.19465990788      
         H56       H         0.145588933173      0.790480858243      0.0721325327184    
         H57       H         0.354801681859      0.710690962605      0.928031600802     
         H58       H         0.235206518195      0.874419914502      0.092922606187     
         H59       H         0.265184120836      0.626751938726      0.907241441512     
         C60       C         0.873133866172      0.590400555993      0.656273050208     
         C61       C         0.628038012026      0.910771319006      0.343891084795     
         C62       C         0.910631203121      0.64608507815       0.409455413242     
         C63       C         0.590539633056      0.855086796883      0.590708721907     
         C64       C         0.861267495544      0.646917925812      0.525761162617     
         C65       C         0.639904382654      0.854253949187      0.474402972386     
         C66       C         0.803820269256      0.700725008801      0.512433130844     
         C67       C         0.697351608942      0.800446866198      0.487731004159     
         C68       C         0.725669619432      0.773923247874      0.667542138437     
         C69       C         0.77550225237       0.727248627127      0.332621851561     
         C70       C         0.778903952787      0.724062319175      0.679893274282     
         C71       C         0.722267925411      0.777109555824      0.320270860721     
         H72       H         0.846495295266      0.578066964818      0.755003973348     
         H73       H         0.654676576535      0.923104910183      0.245160016649     
         H74       H         0.914784498548      0.679479512347      0.305507857138     
         H75       H         0.586387373254      0.821692362655      0.694656132859     
         H76       H         0.708640091962      0.789873057554      0.781994016684     
         H77       H         0.79253173022       0.711298817449      0.21816997332      
         H78       H         0.798258318672      0.705934812175      0.802786239284     
         H79       H         0.70291355313       0.795237062826      0.197377750713     
         Fe80      Fe        1.0       0.4842    0.75      
         Fe81      Fe        1.0       0.5158    0.25      
         N82       N         0.929251  0.44594   0.120592  
         N83       N         0.929251  0.55406   0.620592  
         N84       N         0.070749  0.44594   0.379408  
         N85       N         0.070749  0.55406   0.879408  
         N86       N         0.952427  0.411527  0.968051  
         N87       N         0.952427  0.588473  0.468051  
         N88       N         0.047573  0.411527  0.531949  
         N89       N         0.047573  0.588473  0.031949  
         Fe90      Fe        0.5       0.9842    0.75      
         Fe91      Fe        0.5       0.0158    0.25      
         N92       N         0.429251  0.94594   0.120592  
         N93       N         0.429251  0.05406   0.620592  
         N94       N         0.570749  0.94594   0.379408  
         N95       N         0.570749  0.05406   0.879408  
         N96       N         0.452427  0.911527  0.968051  
         N97       N         0.452427  0.088473  0.468051  
         N98       N         0.547573  0.911527  0.531949  
         N99       N         0.547573  0.088473  0.031949 